LTspice 24.1.9 for Windows
Circuit: C:\Users\Jacky\Desktop\LT_Learn\Behaviroal Voltage Add_together\Draft2.net
Start Time: Sat Sep  6 15:38:02 2025
solver = Normal
Maximum thread count: 4
tnom = 27
temp = 27
method = trap
C:\Users\Jacky\Desktop\LT_Learn\Behaviroal Voltage Add_together\Draft2.net(4): Limiting rise time to 0.00025.

V2 IN 0 PULSE(0 2 0 0 0 2.5m 5m)
^^^^^^^^^^^^^^^^^^^^^^^^^^^^^^^^
C:\Users\Jacky\Desktop\LT_Learn\Behaviroal Voltage Add_together\Draft2.net(4): Limiting fall time to 0.00025.

V2 IN 0 PULSE(0 2 0 0 0 2.5m 5m)
^^^^^^^^^^^^^^^^^^^^^^^^^^^^^^^^
.OP point found by inspection.
Total elapsed time: 0.070 seconds.

Files loaded:
C:\Users\Jacky\Desktop\LT_Learn\Behaviroal Voltage Add_together\Draft2.net

