LTspice 24.1.9 for Windows
Circuit: C:\Users\Jacky\Desktop\LT_Learn\RC_Filfter\Draft1.net
Start Time: Mon Sep  8 13:38:32 2025
solver = Normal
Maximum thread count: 4
tnom = 27
temp = 27
method = trap
Direct Newton iteration for .op point succeeded.
Total elapsed time: 0.025 seconds.

Files loaded:
C:\Users\Jacky\Desktop\LT_Learn\RC_Filfter\Draft1.net

