LTspice 24.1.9 for Windows
Circuit: C:\Users\Jacky\Desktop\LT_Learn\white_noise\Draft1.net
Start Time: Sat Sep  6 22:49:55 2025
solver = Normal
Maximum thread count: 4
tnom = 27
temp = 27
method = trap
Direct Newton iteration for .op point succeeded.
Total elapsed time: 0.102 seconds.

Files loaded:
C:\Users\Jacky\Desktop\LT_Learn\white_noise\Draft1.net
C:\Users\Jacky\AppData\Local\LTspice\lib\cmp\standard.dio

