LTspice 24.1.9 for Windows
Circuit: C:\Users\Jacky\Desktop\LT_Learn\Thirdpartylib\REF192\example_ref192.net
Start Time: Tue Sep  9 08:53:42 2025
solver = Normal
Maximum thread count: 4
tnom = 27
temp = 27
method = trap
Direct Newton iteration for .op point succeeded.
Total elapsed time: 0.068 seconds.

Files loaded:
C:\Users\Jacky\Desktop\LT_Learn\Thirdpartylib\REF192\example_ref192.net
C:\Users\Jacky\Desktop\LT_Learn\Thirdpartylib\REF192\ref192.cir

