LTspice 24.1.9 for Windows
Circuit: C:\Users\Jacky\Desktop\LT_Learn\Draft3.net
Start Time: Wed Sep  3 14:09:14 2025
solver = Normal
Maximum thread count: 4
tnom = 27
temp = 27
method = trap
Direct Newton iteration for .op point succeeded.
Total elapsed time: 8.546 seconds.

Files loaded:
C:\Users\Jacky\Desktop\LT_Learn\Draft3.net

