LTspice 24.1.9 for Windows
Circuit: C:\Users\Jacky\Desktop\LT_Learn\Draft1.net
Start Time: Thu Sep  4 12:04:29 2025
Options: plotwinsize=0
solver = Normal
Maximum thread count: 4
tnom = 27
temp = 27
method = trap
.OP point found by inspection.
Total elapsed time: 0.224 seconds.

Files loaded:
C:\Users\Jacky\Desktop\LT_Learn\Draft1.net

