LTspice 24.1.9 for Windows
Circuit: C:\Users\Jacky\Desktop\LT_Learn\Draft2.net
Start Time: Wed Sep  3 13:50:08 2025
solver = Normal
Maximum thread count: 4
tnom = 27
temp = 27
method = trap
Direct Newton iteration failed to find .op point.  (Use ".option noopiter" to skip.)
Starting Gmin stepping
Gmin = 10
Gmin = 1.07374
Gmin = 0.115292
Gmin = 0.0123794
Gmin = 0.00132923
Gmin = 0.000142725
Gmin = 1.5325e-05
vernier = 0.5
vernier = 0.25
Gmin = 3.21388e-06
vernier = 0.125
vernier = 0.0625
vernier = 0.03125
vernier = 0.015625
vernier = 0.0078125
vernier = 0.00390625
vernier = 0.00195312
vernier = 0.000976562
vernier = 0.000488281
Gmin = 0
Gmin = 0
Gmin stepping failed

Starting source stepping with srcstepmethod=0
Source Step = 3.0303%
vernier = 0.25
Source Step = 0.0177557%
Starting source stepping with srcstepmethod=1
Source Step = 3.0303%
vernier = 0.25
Source stepping failed

Pseudo Transient failed in finding the operating point at 9.86279 ms.
Trouble finding operating point....skipping operating point for Transient analysis.

Simulation stopped by user.
Total elapsed time: 59.841 seconds.

Files loaded:
C:\Users\Jacky\Desktop\LT_Learn\Draft2.net
C:\Users\Jacky\AppData\Local\LTspice\lib\sub\LT8640.sub

