LTspice 24.1.9 for Windows
Circuit: C:\Users\Jacky\Desktop\LT_Learn\Draft11.net
Start Time: Wed Sep  3 12:25:06 2025
solver = Normal
Maximum thread count: 4
tnom = 27
temp = 27
method = trap
Direct Newton iteration for .op point succeeded.
.step x=1
.step x=1.5
.step x=2
.step x=2.5
Total elapsed time: 103.151 seconds.

Files loaded:
C:\Users\Jacky\Desktop\LT_Learn\Draft11.net
C:\Users\Jacky\AppData\Local\LTspice\lib\sub\LTM8065.sub


Measurement: a
  step	PP(V(out))	FROM	TO
     1	0.0589108467102	0.0006	1.5
     2	0.10086774826	0.0006	1.5
     3	0.140315532684	0.0006	1.5
     4	0.17866563797	0.0006	1.5
