LTspice 24.1.9 for Windows
Circuit: C:\Users\Jacky\Desktop\LT_Learn\三端口控制4管指示灯\Draft3.net
Start Time: Mon Sep  8 15:24:09 2025
solver = Normal
Maximum thread count: 4
tnom = 27
temp = 27
method = trap
.OP point found by inspection.
Total elapsed time: 0.032 seconds.

Files loaded:
C:\Users\Jacky\Desktop\LT_Learn\三端口控制4管指示灯\Draft3.net

