LTspice 24.1.9 for Windows
Circuit: C:\Users\Jacky\Desktop\LT_Learn\三端口控制4管指示灯\Draft2.net
Start Time: Mon Sep  8 13:13:40 2025
solver = Normal
Maximum thread count: 4
tnom = 27
temp = 27
method = trap
.OP point found by inspection.
Total elapsed time: 0.027 seconds.

Files loaded:
C:\Users\Jacky\Desktop\LT_Learn\三端口控制4管指示灯\Draft2.net

